31
Coordinates from ORCA-job /home/pbstmp/10229.buckeye01/fs
C 19.26023639833784 20.91646340027803 0.25458120652071
C 20.00052155751952 19.74240128023625 0.19955138780338
C 21.39905423525045 19.778788054143 0.18911473835373
C 22.05740955938755 21.03873647651599 0.23384618462677
C 21.29155052689449 22.23632266052847 0.29094991037488
C 19.8951977834163 22.15030530188336 0.29925902647392
C 21.98243046016013 23.49009874398459 0.35000632393889
C 23.3366935651416 23.54876822135943 0.3619923691948
C 24.13512216997381 22.35957610955309 0.31731080930791
C 23.47706958871019 21.10034971791289 0.24823713717719
C 24.24288043707976 19.9015113040245 0.21786588348216
C 23.55145567894219 18.64771437623348 0.16700103927019
C 22.19726887263469 18.58939246517404 0.15369582008965
C 25.63888533176698 19.98586348549844 0.25275012775691
C 26.27355083226097 21.21908240609271 0.3180025376157
C 25.53360351288291 22.39401158333278 0.34913112041388
H 19.31051310923091 23.06112512378415 0.34664885667806
H 21.39273521429233 24.39825740435191 0.39105003531553
H 23.84323222661011 24.505168100804 0.41273787398247
H 27.35510327825198 21.26551690342898 0.34849073164158
H 26.03701389668565 23.35184209152434 0.40548108327277
H 18.17838294257644 20.86821293889704 0.26509631752311
H 19.4969050258063 18.78351734711269 0.16920790785167
H 24.14039402942263 17.73846078211478 0.14464945177847
H 21.69084581838024 17.63220755371584 0.12053568273215
H 26.22343674860964 19.07394411680689 0.23364027936619
C 22.605151004379774 20.325988939083405 2.8121873610069876
H 22.648138320516733 21.075470111329686 3.6016112760864374
H 23.490430059851946 20.406405710857676 2.1837091806314577
H 21.718021900675353 20.488859120265406 2.202574464791248
H 22.563801040625105 19.33330182410919 3.259365617454968
