9
Coordinates from ORCA-job in
C 22.26020731676717 20.34851682571741 3.55324537896818
H 22.21095632157374 21.164752639546 4.27240585594724
H 23.1994515522191 20.41460926093094 3.00770915598815
H 21.42203235379657 20.41371727414856 2.85899053503798
H 22.22431314329017 19.4015567921012 4.09032906835264
O 28.20491536648204 19.242278305419077 6.198369674698601
M 28.293008632989924 19.157135570131306 6.28491614212326
H 28.509074885850016 19.427845429918282 7.086797466690127
H 28.588940445073646 18.391576132851796 5.98604288622851
