9
Coordinates from ORCA-job in
C 22.26020731676717 20.34851682571741 3.55324537896818
H 22.21095632157374 21.164752639546 4.27240585594724
H 23.1994515522191 20.41460926093094 3.00770915598815
H 21.42203235379657 20.41371727414856 2.85899053503798
H 22.22431314329017 19.4015567921012 4.09032906835264
O 27.48434469378933 19.376367823030996 5.877748547943399
M 27.57243796029721 19.291225087743225 5.964295015368058
H 27.788504213157303 19.5619349475302 6.766176339934925
H 27.868369772380927 18.525665650463715 5.665421759473309
