9
Coordinates from ORCA-job in
C 22.26020731676717 20.34851682571741 3.55324537896818
H 22.21095632157374 21.164752639546 4.27240585594724
H 23.1994515522191 20.41460926093094 3.00770915598815
H 21.42203235379657 20.41371727414856 2.85899053503798
H 22.22431314329017 19.4015567921012 4.09032906835264
O 25.68291801205755 19.711591617060794 5.0761957310553925
M 25.77101127856543 19.626448881773022 5.162742198480052
H 25.987077531425523 19.89715874156 5.964623523046919
H 26.066943090649154 18.860889444493512 4.863868942585302
