9
Coordinates from ORCA-job in
C 22.26020731676717 20.34851682571741 3.55324537896818
H 22.21095632157374 21.164752639546 4.27240585594724
H 23.1994515522191 20.41460926093094 3.00770915598815
H 21.42203235379657 20.41371727414856 2.85899053503798
H 22.22431314329017 19.4015567921012 4.09032906835264
O 28.925486039174753 19.10818878780716 6.518990801453803
M 29.013579305682637 19.023046052519387 6.605537268878463
H 29.229645558542728 19.293755912306363 7.40741859344533
H 29.309511117766352 18.257486615239877 6.306664012983715
