9
Coordinates from ORCA-job in
C 22.26020731676717 20.34851682571741 3.55324537896818
H 22.21095632157374 21.164752639546 4.27240585594724
H 23.1994515522191 20.41460926093094 3.00770915598815
H 21.42203235379657 20.41371727414856 2.85899053503798
H 22.22431314329017 19.4015567921012 4.09032906835264
O 24.60206200301848 19.912725893478672 4.595264040922588
M 24.690155269526365 19.8275831581909 4.681810508347247
H 24.906221522386456 20.098293017977877 5.483691832914115
H 24.986087081610087 19.06202372091139 4.382937252452498
