9
Coordinates from ORCA-job in
C 22.26020731676717 20.34851682571741 3.55324537896818
H 22.21095632157374 21.164752639546 4.27240585594724
H 23.1994515522191 20.41460926093094 3.00770915598815
H 21.42203235379657 20.41371727414856 2.85899053503798
H 22.22431314329017 19.4015567921012 4.09032906835264
O 28.024772698308865 19.275800684822055 6.118214393009801
M 28.11286596481675 19.190657949534284 6.20476086043446
H 28.32893221767684 19.46136780932126 7.006642185001327
H 28.40879777690047 18.425098512254774 5.905887604539711
