9
Coordinates from ORCA-job in
C 22.26020731676717 20.34851682571741 3.55324537896818
H 22.21095632157374 21.164752639546 4.27240585594724
H 23.1994515522191 20.41460926093094 3.00770915598815
H 21.42203235379657 20.41371727414856 2.85899053503798
H 22.22431314329017 19.4015567921012 4.09032906835264
O 29.105628707347933 19.074666408404177 6.599146083142605
M 29.193721973855816 18.989523673116405 6.685692550567264
H 29.409788226715907 19.26023353290338 7.487573875134132
H 29.489653785939538 18.223964235836895 6.386819294672515
