29
Coordinates from ORCA-job /home/pbstmp/10230.buckeye01/fs
  C   19.37469366516883     20.89321470090159      0.46181387210108
  C   20.12587338270303     19.72818735759256      0.35836425539135
  C   21.52295365382948     19.78301325981476      0.27475200750890
  C   22.16526198487162     21.05281159652133      0.29501620059388
  C   21.38656581040991     22.24079103995327      0.38465292084221
  C   19.99435506779450     22.13543165617944      0.47096541053557
  C   22.06182546814427     23.50425352732920      0.38844547288406
  C   23.41348094792683     23.58102084510999      0.32080379010351
  C   24.22569053610014     22.40274066192287      0.24485080384956
  C   23.58332609076389     21.13358139325534      0.23310713082635
  C   24.36223105649205     19.94436354657461      0.16598669828673
  C   23.68633567522354     18.68091441465584      0.15679674860143
  C   22.33401916764679     18.60365429032091      0.20393634710659
  C   25.75632934794255     20.04834436698754      0.11422387430933
  C   26.37558421640343     21.29077639234912      0.12268062170311
  C   25.62254775979975     22.45628357632193      0.18635349568936
  H   19.40103560011679     23.03776614153674      0.55437650857969
  H   21.46281929950236     24.40480242669281      0.45128871142025
  H   23.90770476162649     24.54503329809886      0.32649869530382
  H   27.45570136075066     21.35270885272806      0.07664667064511
  H   26.11478740343978     23.42145747759110      0.19062895571771
  H   18.29657342845409     20.82978331133000      0.53932161178939
  H   19.63390757631644     18.76298642465546      0.35064406048746
  H   24.28585064971281     17.77959369679746      0.11124846143884
  H   21.83915048314428     17.64030502758306      0.20172515359103
  H   26.35114027535332     19.14447076796696      0.06218459126251
  O   21.44589308738029     19.71173055785281      3.59169254593273
  H   22.36990953662307     19.83850704302197      3.35193259127831
  H   20.96425270635750     19.85847234835309      2.76916179222009
30
Coordinates from ORCA-job /home/pbstmp/10230.buckeye01/fs
C 19.37469366516883 20.89321470090159 0.46181387210108
C 20.12587338270303 19.72818735759256 0.35836425539135
C 21.52295365382948 19.78301325981476 0.2747520075089
C 22.16526198487162 21.05281159652133 0.29501620059388
C 21.38656581040991 22.24079103995327 0.38465292084221
C 19.9943550677945 22.13543165617944 0.47096541053557
C 22.06182546814427 23.5042535273292 0.38844547288406
C 23.41348094792683 23.58102084510999 0.32080379010351
C 24.22569053610014 22.40274066192287 0.24485080384956
C 23.58332609076389 21.13358139325534 0.23310713082635
C 24.36223105649205 19.94436354657461 0.16598669828673
C 23.68633567522354 18.68091441465584 0.15679674860143
C 22.33401916764679 18.60365429032091 0.20393634710659
C 25.75632934794255 20.04834436698754 0.11422387430933
C 26.37558421640343 21.29077639234912 0.12268062170311
C 25.62254775979975 22.45628357632193 0.18635349568936
H 19.40103560011679 23.03776614153674 0.55437650857969
H 21.46281929950236 24.40480242669281 0.45128871142025
H 23.90770476162649 24.54503329809886 0.32649869530382
H 27.45570136075066 21.35270885272806 0.07664667064511
H 26.11478740343978 23.4214574775911 0.19062895571771
H 18.29657342845409 20.82978331133 0.53932161178939
H 19.63390757631644 18.76298642465546 0.35064406048746
H 24.28585064971281 17.77959369679746 0.11124846143884
H 21.83915048314428 17.64030502758306 0.20172515359103
H 26.35114027535332 19.14447076796696 0.06218459126251
O 21.46257958078199 19.727165927598342 2.873450921732702
M 21.51868161689529 19.76185345543184 2.7387314466864314
H 22.38131763277944 19.852987560680035 2.6360874431590333
H 20.982110634901627 19.87232326195193 2.0583858612449077
30
Coordinates from ORCA-job /home/pbstmp/10230.buckeye01/fs
C 19.37469366516883 20.89321470090159 0.46181387210108
C 20.12587338270303 19.72818735759256 0.35836425539135
C 21.52295365382948 19.78301325981476 0.2747520075089
C 22.16526198487162 21.05281159652133 0.29501620059388
C 21.38656581040991 22.24079103995327 0.38465292084221
C 19.9943550677945 22.13543165617944 0.47096541053557
C 22.06182546814427 23.5042535273292 0.38844547288406
C 23.41348094792683 23.58102084510999 0.32080379010351
C 24.22569053610014 22.40274066192287 0.24485080384956
C 23.58332609076389 21.13358139325534 0.23310713082635
C 24.36223105649205 19.94436354657461 0.16598669828673
C 23.68633567522354 18.68091441465584 0.15679674860143
C 22.33401916764679 18.60365429032091 0.20393634710659
C 25.75632934794255 20.04834436698754 0.11422387430933
C 26.37558421640343 21.29077639234912 0.12268062170311
C 25.62254775979975 22.45628357632193 0.18635349568936
H 19.40103560011679 23.03776614153674 0.55437650857969
H 21.46281929950236 24.40480242669281 0.45128871142025
H 23.90770476162649 24.54503329809886 0.32649869530382
H 27.45570136075066 21.35270885272806 0.07664667064511
H 26.11478740343978 23.4214574775911 0.19062895571771
H 18.29657342845409 20.82978331133 0.53932161178939
H 19.63390757631644 18.76298642465546 0.35064406048746
H 24.28585064971281 17.77959369679746 0.11124846143884
H 21.83915048314428 17.64030502758306 0.20172515359103
H 26.35114027535332 19.14447076796696 0.06218459126251
O 21.4579354213168 19.722869978966312 3.0733508382114554
M 21.5140374574301 19.75755750679981 2.938631363165185
H 22.37667347331425 19.848691612048004 2.835987359637787
H 20.977466475436437 19.8680273133199 2.2582857777236613
30
Coordinates from ORCA-job /home/pbstmp/10230.buckeye01/fs
C 19.37469366516883 20.89321470090159 0.46181387210108
C 20.12587338270303 19.72818735759256 0.35836425539135
C 21.52295365382948 19.78301325981476 0.2747520075089
C 22.16526198487162 21.05281159652133 0.29501620059388
C 21.38656581040991 22.24079103995327 0.38465292084221
C 19.9943550677945 22.13543165617944 0.47096541053557
C 22.06182546814427 23.5042535273292 0.38844547288406
C 23.41348094792683 23.58102084510999 0.32080379010351
C 24.22569053610014 22.40274066192287 0.24485080384956
C 23.58332609076389 21.13358139325534 0.23310713082635
C 24.36223105649205 19.94436354657461 0.16598669828673
C 23.68633567522354 18.68091441465584 0.15679674860143
C 22.33401916764679 18.60365429032091 0.20393634710659
C 25.75632934794255 20.04834436698754 0.11422387430933
C 26.37558421640343 21.29077639234912 0.12268062170311
C 25.62254775979975 22.45628357632193 0.18635349568936
H 19.40103560011679 23.03776614153674 0.55437650857969
H 21.46281929950236 24.40480242669281 0.45128871142025
H 23.90770476162649 24.54503329809886 0.32649869530382
H 27.45570136075066 21.35270885272806 0.07664667064511
H 26.11478740343978 23.4214574775911 0.19062895571771
H 18.29657342845409 20.82978331133 0.53932161178939
H 19.63390757631644 18.76298642465546 0.35064406048746
H 24.28585064971281 17.77959369679746 0.11124846143884
H 21.83915048314428 17.64030502758306 0.20172515359103
H 26.35114027535332 19.14447076796696 0.06218459126251
O 21.453291261851607 19.718574030334278 3.27325075469021
M 21.509393297964905 19.753261558167775 3.1385312796439395
H 22.372029313849055 19.84439566341597 3.0358872761165414
H 20.972822315971243 19.863731364687865 2.458185694202416
30
Coordinates from ORCA-job /home/pbstmp/10230.buckeye01/fs
C 19.37469366516883 20.89321470090159 0.46181387210108
C 20.12587338270303 19.72818735759256 0.35836425539135
C 21.52295365382948 19.78301325981476 0.2747520075089
C 22.16526198487162 21.05281159652133 0.29501620059388
C 21.38656581040991 22.24079103995327 0.38465292084221
C 19.9943550677945 22.13543165617944 0.47096541053557
C 22.06182546814427 23.5042535273292 0.38844547288406
C 23.41348094792683 23.58102084510999 0.32080379010351
C 24.22569053610014 22.40274066192287 0.24485080384956
C 23.58332609076389 21.13358139325534 0.23310713082635
C 24.36223105649205 19.94436354657461 0.16598669828673
C 23.68633567522354 18.68091441465584 0.15679674860143
C 22.33401916764679 18.60365429032091 0.20393634710659
C 25.75632934794255 20.04834436698754 0.11422387430933
C 26.37558421640343 21.29077639234912 0.12268062170311
C 25.62254775979975 22.45628357632193 0.18635349568936
H 19.40103560011679 23.03776614153674 0.55437650857969
H 21.46281929950236 24.40480242669281 0.45128871142025
H 23.90770476162649 24.54503329809886 0.32649869530382
H 27.45570136075066 21.35270885272806 0.07664667064511
H 26.11478740343978 23.4214574775911 0.19062895571771
H 18.29657342845409 20.82978331133 0.53932161178939
H 19.63390757631644 18.76298642465546 0.35064406048746
H 24.28585064971281 17.77959369679746 0.11124846143884
H 21.83915048314428 17.64030502758306 0.20172515359103
H 26.35114027535332 19.14447076796696 0.06218459126251
O 21.448647102386417 19.714278081702247 3.4731506711689635
M 21.504749138499715 19.748965609535745 3.338431196122693
H 22.367385154383864 19.84009971478394 3.235787192595295
H 20.968178156506053 19.859435416055835 2.6580856106811694
30
Coordinates from ORCA-job /home/pbstmp/10230.buckeye01/fs
C 19.37469366516883 20.89321470090159 0.46181387210108
C 20.12587338270303 19.72818735759256 0.35836425539135
C 21.52295365382948 19.78301325981476 0.2747520075089
C 22.16526198487162 21.05281159652133 0.29501620059388
C 21.38656581040991 22.24079103995327 0.38465292084221
C 19.9943550677945 22.13543165617944 0.47096541053557
C 22.06182546814427 23.5042535273292 0.38844547288406
C 23.41348094792683 23.58102084510999 0.32080379010351
C 24.22569053610014 22.40274066192287 0.24485080384956
C 23.58332609076389 21.13358139325534 0.23310713082635
C 24.36223105649205 19.94436354657461 0.16598669828673
C 23.68633567522354 18.68091441465584 0.15679674860143
C 22.33401916764679 18.60365429032091 0.20393634710659
C 25.75632934794255 20.04834436698754 0.11422387430933
C 26.37558421640343 21.29077639234912 0.12268062170311
C 25.62254775979975 22.45628357632193 0.18635349568936
H 19.40103560011679 23.03776614153674 0.55437650857969
H 21.46281929950236 24.40480242669281 0.45128871142025
H 23.90770476162649 24.54503329809886 0.32649869530382
H 27.45570136075066 21.35270885272806 0.07664667064511
H 26.11478740343978 23.4214574775911 0.19062895571771
H 18.29657342845409 20.82978331133 0.53932161178939
H 19.63390757631644 18.76298642465546 0.35064406048746
H 24.28585064971281 17.77959369679746 0.11124846143884
H 21.83915048314428 17.64030502758306 0.20172515359103
H 26.35114027535332 19.14447076796696 0.06218459126251
O 21.444002942921227 19.709982133070213 3.6730505876477175
M 21.500104979034525 19.74466966090371 3.5383311126014476
H 22.362740994918674 19.835803766151905 3.4356871090740495
H 20.963533997040862 19.8551394674238 2.857985527159924
30
Coordinates from ORCA-job /home/pbstmp/10230.buckeye01/fs
C 19.37469366516883 20.89321470090159 0.46181387210108
C 20.12587338270303 19.72818735759256 0.35836425539135
C 21.52295365382948 19.78301325981476 0.2747520075089
C 22.16526198487162 21.05281159652133 0.29501620059388
C 21.38656581040991 22.24079103995327 0.38465292084221
C 19.9943550677945 22.13543165617944 0.47096541053557
C 22.06182546814427 23.5042535273292 0.38844547288406
C 23.41348094792683 23.58102084510999 0.32080379010351
C 24.22569053610014 22.40274066192287 0.24485080384956
C 23.58332609076389 21.13358139325534 0.23310713082635
C 24.36223105649205 19.94436354657461 0.16598669828673
C 23.68633567522354 18.68091441465584 0.15679674860143
C 22.33401916764679 18.60365429032091 0.20393634710659
C 25.75632934794255 20.04834436698754 0.11422387430933
C 26.37558421640343 21.29077639234912 0.12268062170311
C 25.62254775979975 22.45628357632193 0.18635349568936
H 19.40103560011679 23.03776614153674 0.55437650857969
H 21.46281929950236 24.40480242669281 0.45128871142025
H 23.90770476162649 24.54503329809886 0.32649869530382
H 27.45570136075066 21.35270885272806 0.07664667064511
H 26.11478740343978 23.4214574775911 0.19062895571771
H 18.29657342845409 20.82978331133 0.53932161178939
H 19.63390757631644 18.76298642465546 0.35064406048746
H 24.28585064971281 17.77959369679746 0.11124846143884
H 21.83915048314428 17.64030502758306 0.20172515359103
H 26.35114027535332 19.14447076796696 0.06218459126251
O 21.439358783456033 19.705686184438182 3.8729505041264716
M 21.49546081956933 19.74037371227168 3.738231029080201
H 22.35809683545348 19.831507817519874 3.635587025552803
H 20.95888983757567 19.85084351879177 3.0578854436386775
30
Coordinates from ORCA-job /home/pbstmp/10230.buckeye01/fs
C 19.37469366516883 20.89321470090159 0.46181387210108
C 20.12587338270303 19.72818735759256 0.35836425539135
C 21.52295365382948 19.78301325981476 0.2747520075089
C 22.16526198487162 21.05281159652133 0.29501620059388
C 21.38656581040991 22.24079103995327 0.38465292084221
C 19.9943550677945 22.13543165617944 0.47096541053557
C 22.06182546814427 23.5042535273292 0.38844547288406
C 23.41348094792683 23.58102084510999 0.32080379010351
C 24.22569053610014 22.40274066192287 0.24485080384956
C 23.58332609076389 21.13358139325534 0.23310713082635
C 24.36223105649205 19.94436354657461 0.16598669828673
C 23.68633567522354 18.68091441465584 0.15679674860143
C 22.33401916764679 18.60365429032091 0.20393634710659
C 25.75632934794255 20.04834436698754 0.11422387430933
C 26.37558421640343 21.29077639234912 0.12268062170311
C 25.62254775979975 22.45628357632193 0.18635349568936
H 19.40103560011679 23.03776614153674 0.55437650857969
H 21.46281929950236 24.40480242669281 0.45128871142025
H 23.90770476162649 24.54503329809886 0.32649869530382
H 27.45570136075066 21.35270885272806 0.07664667064511
H 26.11478740343978 23.4214574775911 0.19062895571771
H 18.29657342845409 20.82978331133 0.53932161178939
H 19.63390757631644 18.76298642465546 0.35064406048746
H 24.28585064971281 17.77959369679746 0.11124846143884
H 21.83915048314428 17.64030502758306 0.20172515359103
H 26.35114027535332 19.14447076796696 0.06218459126251
O 21.434714623990843 19.70139023580615 4.072850420605225
M 21.49081666010414 19.73607776363965 3.938130945558955
H 22.35345267598829 19.827211868887844 3.8354869420315567
H 20.95424567811048 19.84654757015974 3.257785360117431
30
Coordinates from ORCA-job /home/pbstmp/10230.buckeye01/fs
C 19.37469366516883 20.89321470090159 0.46181387210108
C 20.12587338270303 19.72818735759256 0.35836425539135
C 21.52295365382948 19.78301325981476 0.2747520075089
C 22.16526198487162 21.05281159652133 0.29501620059388
C 21.38656581040991 22.24079103995327 0.38465292084221
C 19.9943550677945 22.13543165617944 0.47096541053557
C 22.06182546814427 23.5042535273292 0.38844547288406
C 23.41348094792683 23.58102084510999 0.32080379010351
C 24.22569053610014 22.40274066192287 0.24485080384956
C 23.58332609076389 21.13358139325534 0.23310713082635
C 24.36223105649205 19.94436354657461 0.16598669828673
C 23.68633567522354 18.68091441465584 0.15679674860143
C 22.33401916764679 18.60365429032091 0.20393634710659
C 25.75632934794255 20.04834436698754 0.11422387430933
C 26.37558421640343 21.29077639234912 0.12268062170311
C 25.62254775979975 22.45628357632193 0.18635349568936
H 19.40103560011679 23.03776614153674 0.55437650857969
H 21.46281929950236 24.40480242669281 0.45128871142025
H 23.90770476162649 24.54503329809886 0.32649869530382
H 27.45570136075066 21.35270885272806 0.07664667064511
H 26.11478740343978 23.4214574775911 0.19062895571771
H 18.29657342845409 20.82978331133 0.53932161178939
H 19.63390757631644 18.76298642465546 0.35064406048746
H 24.28585064971281 17.77959369679746 0.11124846143884
H 21.83915048314428 17.64030502758306 0.20172515359103
H 26.35114027535332 19.14447076796696 0.06218459126251
O 21.430070464525652 19.697094287174117 4.272750337083979
M 21.48617250063895 19.731781815007615 4.138030862037708
H 22.3488085165231 19.82291592025581 4.035386858510311
H 20.949601518645288 19.842251621527705 3.4576852765961847
30
Coordinates from ORCA-job /home/pbstmp/10230.buckeye01/fs
C 19.37469366516883 20.89321470090159 0.46181387210108
C 20.12587338270303 19.72818735759256 0.35836425539135
C 21.52295365382948 19.78301325981476 0.2747520075089
C 22.16526198487162 21.05281159652133 0.29501620059388
C 21.38656581040991 22.24079103995327 0.38465292084221
C 19.9943550677945 22.13543165617944 0.47096541053557
C 22.06182546814427 23.5042535273292 0.38844547288406
C 23.41348094792683 23.58102084510999 0.32080379010351
C 24.22569053610014 22.40274066192287 0.24485080384956
C 23.58332609076389 21.13358139325534 0.23310713082635
C 24.36223105649205 19.94436354657461 0.16598669828673
C 23.68633567522354 18.68091441465584 0.15679674860143
C 22.33401916764679 18.60365429032091 0.20393634710659
C 25.75632934794255 20.04834436698754 0.11422387430933
C 26.37558421640343 21.29077639234912 0.12268062170311
C 25.62254775979975 22.45628357632193 0.18635349568936
H 19.40103560011679 23.03776614153674 0.55437650857969
H 21.46281929950236 24.40480242669281 0.45128871142025
H 23.90770476162649 24.54503329809886 0.32649869530382
H 27.45570136075066 21.35270885272806 0.07664667064511
H 26.11478740343978 23.4214574775911 0.19062895571771
H 18.29657342845409 20.82978331133 0.53932161178939
H 19.63390757631644 18.76298642465546 0.35064406048746
H 24.28585064971281 17.77959369679746 0.11124846143884
H 21.83915048314428 17.64030502758306 0.20172515359103
H 26.35114027535332 19.14447076796696 0.06218459126251
O 21.42542630506046 19.692798338542087 4.472650253562733
M 21.481528341173757 19.727485866375584 4.337930778516463
H 22.344164357057906 19.81861997162378 4.235286774989065
H 20.944957359180094 19.837955672895674 3.6575851930749392
30
Coordinates from ORCA-job /home/pbstmp/10230.buckeye01/fs
C 19.37469366516883 20.89321470090159 0.46181387210108
C 20.12587338270303 19.72818735759256 0.35836425539135
C 21.52295365382948 19.78301325981476 0.2747520075089
C 22.16526198487162 21.05281159652133 0.29501620059388
C 21.38656581040991 22.24079103995327 0.38465292084221
C 19.9943550677945 22.13543165617944 0.47096541053557
C 22.06182546814427 23.5042535273292 0.38844547288406
C 23.41348094792683 23.58102084510999 0.32080379010351
C 24.22569053610014 22.40274066192287 0.24485080384956
C 23.58332609076389 21.13358139325534 0.23310713082635
C 24.36223105649205 19.94436354657461 0.16598669828673
C 23.68633567522354 18.68091441465584 0.15679674860143
C 22.33401916764679 18.60365429032091 0.20393634710659
C 25.75632934794255 20.04834436698754 0.11422387430933
C 26.37558421640343 21.29077639234912 0.12268062170311
C 25.62254775979975 22.45628357632193 0.18635349568936
H 19.40103560011679 23.03776614153674 0.55437650857969
H 21.46281929950236 24.40480242669281 0.45128871142025
H 23.90770476162649 24.54503329809886 0.32649869530382
H 27.45570136075066 21.35270885272806 0.07664667064511
H 26.11478740343978 23.4214574775911 0.19062895571771
H 18.29657342845409 20.82978331133 0.53932161178939
H 19.63390757631644 18.76298642465546 0.35064406048746
H 24.28585064971281 17.77959369679746 0.11124846143884
H 21.83915048314428 17.64030502758306 0.20172515359103
H 26.35114027535332 19.14447076796696 0.06218459126251
O 21.42078214559527 19.688502389910056 4.672550170041487
M 21.476884181708567 19.723189917743554 4.5378306949952165
H 22.339520197592716 19.814324022991748 4.435186691467818
H 20.940313199714904 19.833659724263644 3.857485109553693
30
Coordinates from ORCA-job /home/pbstmp/10230.buckeye01/fs
C 19.37469366516883 20.89321470090159 0.46181387210108
C 20.12587338270303 19.72818735759256 0.35836425539135
C 21.52295365382948 19.78301325981476 0.2747520075089
C 22.16526198487162 21.05281159652133 0.29501620059388
C 21.38656581040991 22.24079103995327 0.38465292084221
C 19.9943550677945 22.13543165617944 0.47096541053557
C 22.06182546814427 23.5042535273292 0.38844547288406
C 23.41348094792683 23.58102084510999 0.32080379010351
C 24.22569053610014 22.40274066192287 0.24485080384956
C 23.58332609076389 21.13358139325534 0.23310713082635
C 24.36223105649205 19.94436354657461 0.16598669828673
C 23.68633567522354 18.68091441465584 0.15679674860143
C 22.33401916764679 18.60365429032091 0.20393634710659
C 25.75632934794255 20.04834436698754 0.11422387430933
C 26.37558421640343 21.29077639234912 0.12268062170311
C 25.62254775979975 22.45628357632193 0.18635349568936
H 19.40103560011679 23.03776614153674 0.55437650857969
H 21.46281929950236 24.40480242669281 0.45128871142025
H 23.90770476162649 24.54503329809886 0.32649869530382
H 27.45570136075066 21.35270885272806 0.07664667064511
H 26.11478740343978 23.4214574775911 0.19062895571771
H 18.29657342845409 20.82978331133 0.53932161178939
H 19.63390757631644 18.76298642465546 0.35064406048746
H 24.28585064971281 17.77959369679746 0.11124846143884
H 21.83915048314428 17.64030502758306 0.20172515359103
H 26.35114027535332 19.14447076796696 0.06218459126251
O 21.416137986130078 19.68420644127802 4.8724500865202405
M 21.472240022243376 19.71889396911152 4.73773061147397
H 22.334876038127526 19.810028074359714 4.6350866079465725
H 20.935669040249714 19.82936377563161 4.057385026032446
30
Coordinates from ORCA-job /home/pbstmp/10230.buckeye01/fs
C 19.37469366516883 20.89321470090159 0.46181387210108
C 20.12587338270303 19.72818735759256 0.35836425539135
C 21.52295365382948 19.78301325981476 0.2747520075089
C 22.16526198487162 21.05281159652133 0.29501620059388
C 21.38656581040991 22.24079103995327 0.38465292084221
C 19.9943550677945 22.13543165617944 0.47096541053557
C 22.06182546814427 23.5042535273292 0.38844547288406
C 23.41348094792683 23.58102084510999 0.32080379010351
C 24.22569053610014 22.40274066192287 0.24485080384956
C 23.58332609076389 21.13358139325534 0.23310713082635
C 24.36223105649205 19.94436354657461 0.16598669828673
C 23.68633567522354 18.68091441465584 0.15679674860143
C 22.33401916764679 18.60365429032091 0.20393634710659
C 25.75632934794255 20.04834436698754 0.11422387430933
C 26.37558421640343 21.29077639234912 0.12268062170311
C 25.62254775979975 22.45628357632193 0.18635349568936
H 19.40103560011679 23.03776614153674 0.55437650857969
H 21.46281929950236 24.40480242669281 0.45128871142025
H 23.90770476162649 24.54503329809886 0.32649869530382
H 27.45570136075066 21.35270885272806 0.07664667064511
H 26.11478740343978 23.4214574775911 0.19062895571771
H 18.29657342845409 20.82978331133 0.53932161178939
H 19.63390757631644 18.76298642465546 0.35064406048746
H 24.28585064971281 17.77959369679746 0.11124846143884
H 21.83915048314428 17.64030502758306 0.20172515359103
H 26.35114027535332 19.14447076796696 0.06218459126251
O 21.411493826664884 19.67991049264599 5.072350002998995
M 21.467595862778182 19.71459802047949 4.937630527952725
H 22.33023187866233 19.80573212572768 4.834986524425327
H 20.93102488078452 19.82506782699958 4.257284942511201
30
Coordinates from ORCA-job /home/pbstmp/10230.buckeye01/fs
C 19.37469366516883 20.89321470090159 0.46181387210108
C 20.12587338270303 19.72818735759256 0.35836425539135
C 21.52295365382948 19.78301325981476 0.2747520075089
C 22.16526198487162 21.05281159652133 0.29501620059388
C 21.38656581040991 22.24079103995327 0.38465292084221
C 19.9943550677945 22.13543165617944 0.47096541053557
C 22.06182546814427 23.5042535273292 0.38844547288406
C 23.41348094792683 23.58102084510999 0.32080379010351
C 24.22569053610014 22.40274066192287 0.24485080384956
C 23.58332609076389 21.13358139325534 0.23310713082635
C 24.36223105649205 19.94436354657461 0.16598669828673
C 23.68633567522354 18.68091441465584 0.15679674860143
C 22.33401916764679 18.60365429032091 0.20393634710659
C 25.75632934794255 20.04834436698754 0.11422387430933
C 26.37558421640343 21.29077639234912 0.12268062170311
C 25.62254775979975 22.45628357632193 0.18635349568936
H 19.40103560011679 23.03776614153674 0.55437650857969
H 21.46281929950236 24.40480242669281 0.45128871142025
H 23.90770476162649 24.54503329809886 0.32649869530382
H 27.45570136075066 21.35270885272806 0.07664667064511
H 26.11478740343978 23.4214574775911 0.19062895571771
H 18.29657342845409 20.82978331133 0.53932161178939
H 19.63390757631644 18.76298642465546 0.35064406048746
H 24.28585064971281 17.77959369679746 0.11124846143884
H 21.83915048314428 17.64030502758306 0.20172515359103
H 26.35114027535332 19.14447076796696 0.06218459126251
O 21.406849667199694 19.675614544013957 5.272249919477749
M 21.462951703312992 19.710302071847455 5.137530444431478
H 22.32558771919714 19.80143617709565 5.03488644090408
H 20.92638072131933 19.820771878367545 4.4571848589899545
30
Coordinates from ORCA-job /home/pbstmp/10230.buckeye01/fs
C 19.37469366516883 20.89321470090159 0.46181387210108
C 20.12587338270303 19.72818735759256 0.35836425539135
C 21.52295365382948 19.78301325981476 0.2747520075089
C 22.16526198487162 21.05281159652133 0.29501620059388
C 21.38656581040991 22.24079103995327 0.38465292084221
C 19.9943550677945 22.13543165617944 0.47096541053557
C 22.06182546814427 23.5042535273292 0.38844547288406
C 23.41348094792683 23.58102084510999 0.32080379010351
C 24.22569053610014 22.40274066192287 0.24485080384956
C 23.58332609076389 21.13358139325534 0.23310713082635
C 24.36223105649205 19.94436354657461 0.16598669828673
C 23.68633567522354 18.68091441465584 0.15679674860143
C 22.33401916764679 18.60365429032091 0.20393634710659
C 25.75632934794255 20.04834436698754 0.11422387430933
C 26.37558421640343 21.29077639234912 0.12268062170311
C 25.62254775979975 22.45628357632193 0.18635349568936
H 19.40103560011679 23.03776614153674 0.55437650857969
H 21.46281929950236 24.40480242669281 0.45128871142025
H 23.90770476162649 24.54503329809886 0.32649869530382
H 27.45570136075066 21.35270885272806 0.07664667064511
H 26.11478740343978 23.4214574775911 0.19062895571771
H 18.29657342845409 20.82978331133 0.53932161178939
H 19.63390757631644 18.76298642465546 0.35064406048746
H 24.28585064971281 17.77959369679746 0.11124846143884
H 21.83915048314428 17.64030502758306 0.20172515359103
H 26.35114027535332 19.14447076796696 0.06218459126251
O 21.402205507734504 19.671318595381926 5.472149835956503
M 21.458307543847802 19.706006123215424 5.337430360910233
H 22.32094355973195 19.79714022846362 5.234786357382834
H 20.92173656185414 19.816475929735514 4.657084775468709
30
Coordinates from ORCA-job /home/pbstmp/10230.buckeye01/fs
C 19.37469366516883 20.89321470090159 0.46181387210108
C 20.12587338270303 19.72818735759256 0.35836425539135
C 21.52295365382948 19.78301325981476 0.2747520075089
C 22.16526198487162 21.05281159652133 0.29501620059388
C 21.38656581040991 22.24079103995327 0.38465292084221
C 19.9943550677945 22.13543165617944 0.47096541053557
C 22.06182546814427 23.5042535273292 0.38844547288406
C 23.41348094792683 23.58102084510999 0.32080379010351
C 24.22569053610014 22.40274066192287 0.24485080384956
C 23.58332609076389 21.13358139325534 0.23310713082635
C 24.36223105649205 19.94436354657461 0.16598669828673
C 23.68633567522354 18.68091441465584 0.15679674860143
C 22.33401916764679 18.60365429032091 0.20393634710659
C 25.75632934794255 20.04834436698754 0.11422387430933
C 26.37558421640343 21.29077639234912 0.12268062170311
C 25.62254775979975 22.45628357632193 0.18635349568936
H 19.40103560011679 23.03776614153674 0.55437650857969
H 21.46281929950236 24.40480242669281 0.45128871142025
H 23.90770476162649 24.54503329809886 0.32649869530382
H 27.45570136075066 21.35270885272806 0.07664667064511
H 26.11478740343978 23.4214574775911 0.19062895571771
H 18.29657342845409 20.82978331133 0.53932161178939
H 19.63390757631644 18.76298642465546 0.35064406048746
H 24.28585064971281 17.77959369679746 0.11124846143884
H 21.83915048314428 17.64030502758306 0.20172515359103
H 26.35114027535332 19.14447076796696 0.06218459126251
O 21.39756134826931 19.667022646749896 5.6720497524352576
M 21.453663384382608 19.701710174583393 5.537330277388987
H 22.316299400266757 19.792844279831588 5.434686273861589
H 20.917092402388946 19.812179981103483 4.8569846919474635
30
Coordinates from ORCA-job /home/pbstmp/10230.buckeye01/fs
C 19.37469366516883 20.89321470090159 0.46181387210108
C 20.12587338270303 19.72818735759256 0.35836425539135
C 21.52295365382948 19.78301325981476 0.2747520075089
C 22.16526198487162 21.05281159652133 0.29501620059388
C 21.38656581040991 22.24079103995327 0.38465292084221
C 19.9943550677945 22.13543165617944 0.47096541053557
C 22.06182546814427 23.5042535273292 0.38844547288406
C 23.41348094792683 23.58102084510999 0.32080379010351
C 24.22569053610014 22.40274066192287 0.24485080384956
C 23.58332609076389 21.13358139325534 0.23310713082635
C 24.36223105649205 19.94436354657461 0.16598669828673
C 23.68633567522354 18.68091441465584 0.15679674860143
C 22.33401916764679 18.60365429032091 0.20393634710659
C 25.75632934794255 20.04834436698754 0.11422387430933
C 26.37558421640343 21.29077639234912 0.12268062170311
C 25.62254775979975 22.45628357632193 0.18635349568936
H 19.40103560011679 23.03776614153674 0.55437650857969
H 21.46281929950236 24.40480242669281 0.45128871142025
H 23.90770476162649 24.54503329809886 0.32649869530382
H 27.45570136075066 21.35270885272806 0.07664667064511
H 26.11478740343978 23.4214574775911 0.19062895571771
H 18.29657342845409 20.82978331133 0.53932161178939
H 19.63390757631644 18.76298642465546 0.35064406048746
H 24.28585064971281 17.77959369679746 0.11124846143884
H 21.83915048314428 17.64030502758306 0.20172515359103
H 26.35114027535332 19.14447076796696 0.06218459126251
O 21.39291718880412 19.66272669811786 5.87194966891401
M 21.449019224917418 19.69741422595136 5.73723019386774
H 22.311655240801567 19.788548331199554 5.634586190340341
H 20.912448242923755 19.80788403247145 5.056884608426216
30
Coordinates from ORCA-job /home/pbstmp/10230.buckeye01/fs
C 19.37469366516883 20.89321470090159 0.46181387210108
C 20.12587338270303 19.72818735759256 0.35836425539135
C 21.52295365382948 19.78301325981476 0.2747520075089
C 22.16526198487162 21.05281159652133 0.29501620059388
C 21.38656581040991 22.24079103995327 0.38465292084221
C 19.9943550677945 22.13543165617944 0.47096541053557
C 22.06182546814427 23.5042535273292 0.38844547288406
C 23.41348094792683 23.58102084510999 0.32080379010351
C 24.22569053610014 22.40274066192287 0.24485080384956
C 23.58332609076389 21.13358139325534 0.23310713082635
C 24.36223105649205 19.94436354657461 0.16598669828673
C 23.68633567522354 18.68091441465584 0.15679674860143
C 22.33401916764679 18.60365429032091 0.20393634710659
C 25.75632934794255 20.04834436698754 0.11422387430933
C 26.37558421640343 21.29077639234912 0.12268062170311
C 25.62254775979975 22.45628357632193 0.18635349568936
H 19.40103560011679 23.03776614153674 0.55437650857969
H 21.46281929950236 24.40480242669281 0.45128871142025
H 23.90770476162649 24.54503329809886 0.32649869530382
H 27.45570136075066 21.35270885272806 0.07664667064511
H 26.11478740343978 23.4214574775911 0.19062895571771
H 18.29657342845409 20.82978331133 0.53932161178939
H 19.63390757631644 18.76298642465546 0.35064406048746
H 24.28585064971281 17.77959369679746 0.11124846143884
H 21.83915048314428 17.64030502758306 0.20172515359103
H 26.35114027535332 19.14447076796696 0.06218459126251
O 21.38827302933893 19.65843074948583 6.071849585392765
M 21.444375065452228 19.69311827731933 5.937130110346494
H 22.307011081336377 19.784252382567523 5.834486106819096
H 20.907804083458565 19.80358808383942 5.256784524904971
30
Coordinates from ORCA-job /home/pbstmp/10230.buckeye01/fs
C 19.37469366516883 20.89321470090159 0.46181387210108
C 20.12587338270303 19.72818735759256 0.35836425539135
C 21.52295365382948 19.78301325981476 0.2747520075089
C 22.16526198487162 21.05281159652133 0.29501620059388
C 21.38656581040991 22.24079103995327 0.38465292084221
C 19.9943550677945 22.13543165617944 0.47096541053557
C 22.06182546814427 23.5042535273292 0.38844547288406
C 23.41348094792683 23.58102084510999 0.32080379010351
C 24.22569053610014 22.40274066192287 0.24485080384956
C 23.58332609076389 21.13358139325534 0.23310713082635
C 24.36223105649205 19.94436354657461 0.16598669828673
C 23.68633567522354 18.68091441465584 0.15679674860143
C 22.33401916764679 18.60365429032091 0.20393634710659
C 25.75632934794255 20.04834436698754 0.11422387430933
C 26.37558421640343 21.29077639234912 0.12268062170311
C 25.62254775979975 22.45628357632193 0.18635349568936
H 19.40103560011679 23.03776614153674 0.55437650857969
H 21.46281929950236 24.40480242669281 0.45128871142025
H 23.90770476162649 24.54503329809886 0.32649869530382
H 27.45570136075066 21.35270885272806 0.07664667064511
H 26.11478740343978 23.4214574775911 0.19062895571771
H 18.29657342845409 20.82978331133 0.53932161178939
H 19.63390757631644 18.76298642465546 0.35064406048746
H 24.28585064971281 17.77959369679746 0.11124846143884
H 21.83915048314428 17.64030502758306 0.20172515359103
H 26.35114027535332 19.14447076796696 0.06218459126251
O 21.383628869873736 19.654134800853797 6.271749501871519
M 21.439730905987034 19.688822328687294 6.137030026825249
H 22.302366921871183 19.77995643393549 6.03438602329785
H 20.90315992399337 19.799292135207384 5.456684441383725
