9
Coordinates from ORCA-job in
C 22.26020731676717 20.34851682571741 3.55324537896818
H 22.21095632157374 21.164752639546 4.27240585594724
H 23.1994515522191 20.41460926093094 3.00770915598815
H 21.42203235379657 20.41371727414856 2.85899053503798
H 22.22431314329017 19.4015567921012 4.09032906835264
O 26.943916689269795 19.476934961239937 5.6372827028769965
M 27.032009955777678 19.391792225952166 5.723829170301656
H 27.24807620863777 19.662502085739142 6.525710494868523
H 27.327941767861393 18.626232788672656 5.424955914406908
