9
Coordinates from ORCA-job in
C 22.26020731676717 20.34851682571741 3.55324537896818
H 22.21095632157374 21.164752639546 4.27240585594724
H 23.1994515522191 20.41460926093094 3.00770915598815
H 21.42203235379657 20.41371727414856 2.85899053503798
H 22.22431314329017 19.4015567921012 4.09032906835264
O 27.844630030135686 19.309323064225037 6.038059111321
M 27.93272329664357 19.224180328937265 6.124605578745659
H 28.14878954950366 19.49489018872424 6.926486903312527
H 28.228655108727285 18.458620891657755 5.825732322850911
