9
Coordinates from ORCA-job in
C 22.26020731676717 20.34851682571741 3.55324537896818
H 22.21095632157374 21.164752639546 4.27240585594724
H 23.1994515522191 20.41460926093094 3.00770915598815
H 21.42203235379657 20.41371727414856 2.85899053503798
H 22.22431314329017 19.4015567921012 4.09032906835264
O 25.322632675711194 19.778636375866753 4.915885167677791
M 25.410725942219077 19.693493640578982 5.00243163510245
H 25.62679219507917 19.964203500365958 5.804312959669318
H 25.706657754302793 18.927934203299472 4.703558379207703
