5
Coordinates from ORCA-job /home/pbstmp/10229.buckeye01/fs
C 22.35805933804419 20.157483044151352 6.199007620749251
H 22.401046654181147 20.906964216397633 6.988431535828701
H 23.24333839351636 20.237899815925623 5.570529440373721
H 21.470930234339768 20.320353225333353 5.589394724533511
H 22.31670937428952 19.164795929177135 6.646185877197231
