30
Coordinates from ORCA-job /home/pbstmp/10230.buckeye01/fs
C 19.37469366516883 20.89321470090159 0.46181387210108
C 20.12587338270303 19.72818735759256 0.35836425539135
C 21.52295365382948 19.78301325981476 0.2747520075089
C 22.16526198487162 21.05281159652133 0.29501620059388
C 21.38656581040991 22.24079103995327 0.38465292084221
C 19.9943550677945 22.13543165617944 0.47096541053557
C 22.06182546814427 23.5042535273292 0.38844547288406
C 23.41348094792683 23.58102084510999 0.32080379010351
C 24.22569053610014 22.40274066192287 0.24485080384956
C 23.58332609076389 21.13358139325534 0.23310713082635
C 24.36223105649205 19.94436354657461 0.16598669828673
C 23.68633567522354 18.68091441465584 0.15679674860143
C 22.33401916764679 18.60365429032091 0.20393634710659
C 25.75632934794255 20.04834436698754 0.11422387430933
C 26.37558421640343 21.29077639234912 0.12268062170311
C 25.62254775979975 22.45628357632193 0.18635349568936
H 19.40103560011679 23.03776614153674 0.55437650857969
H 21.46281929950236 24.40480242669281 0.45128871142025
H 23.90770476162649 24.54503329809886 0.32649869530382
H 27.45570136075066 21.35270885272806 0.07664667064511
H 26.11478740343978 23.4214574775911 0.19062895571771
H 18.29657342845409 20.82978331133 0.53932161178939
H 19.63390757631644 18.76298642465546 0.35064406048746
H 24.28585064971281 17.77959369679746 0.11124846143884
H 21.83915048314428 17.64030502758306 0.20172515359103
H 26.35114027535332 19.14447076796696 0.06218459126251
O 21.444002942921227 19.709982133070213 3.6730505876477175
M 21.500104979034525 19.74466966090371 3.5383311126014476
H 22.362740994918674 19.835803766151905 3.4356871090740495
H 20.963533997040862 19.8551394674238 2.857985527159924
